data_image0
_cell_length_a       5.20125
_cell_length_b       4.93533
_cell_length_c       7.9007
_cell_angle_alpha    90
_cell_angle_beta     90
_cell_angle_gamma    90

_symmetry_space_group_name_H-M    "P 1"
_symmetry_int_tables_number       1

loop_
  _symmetry_equiv_pos_as_xyz
  'x, y, z'

loop_
  _atom_site_label
  _atom_site_occupancy
  _atom_site_fract_x
  _atom_site_fract_y
  _atom_site_fract_z
  _atom_site_thermal_displace_type
  _atom_site_B_iso_or_equiv
  _atom_site_type_symbol
  Mg1      1.0000 0.50000  0.00000  0.00000  Biso   1.000  Mg
  Mg2      1.0000 0.00000  0.50000  0.50000  Biso   1.000  Mg
  Mg3      1.0000 0.00000  0.50000  0.00000  Biso   1.000  Mg
  Mg4      1.0000 0.50000  0.00000  0.50000  Biso   1.000  Mg
  Mn1      1.0000 0.46331  0.48232  0.75000  Biso   1.000  Mn
  Mn2      1.0000 0.96331  0.01768  0.75000  Biso   1.000  Mn
  Mn3      1.0000 0.03669  0.98232  0.25000  Biso   1.000  Mn
  Mn4      1.0000 0.53669  0.51768  0.25000  Biso   1.000  Mn
  O1       1.0000 0.68276  0.32483  0.59357  Biso   1.000  O
  O2       1.0000 0.18276  0.17517  0.90643  Biso   1.000  O
  O3       1.0000 0.81724  0.82483  0.40643  Biso   1.000  O
  O4       1.0000 0.31724  0.67517  0.09357  Biso   1.000  O
  O5       1.0000 0.31724  0.67517  0.40643  Biso   1.000  O
  O6       1.0000 0.81724  0.82483  0.09357  Biso   1.000  O
  O7       1.0000 0.18276  0.17517  0.59357  Biso   1.000  O
  O8       1.0000 0.68276  0.32483  0.90643  Biso   1.000  O
  O9       1.0000 0.61970  0.83018  0.75000  Biso   1.000  O
  O10      1.0000 0.11970  0.66982  0.75000  Biso   1.000  O
  O11      1.0000 0.88030  0.33018  0.25000  Biso   1.000  O
  O12      1.0000 0.38030  0.16982  0.25000  Biso   1.000  O
