data_image0
_cell_length_a       6.12135
_cell_length_b       6.43091
_cell_length_c       8.0281
_cell_angle_alpha    120.933
_cell_angle_beta     103.726
_cell_angle_gamma    83.5048

_symmetry_space_group_name_H-M    "P 1"
_symmetry_int_tables_number       1

loop_
  _symmetry_equiv_pos_as_xyz
  'x, y, z'

loop_
  _atom_site_label
  _atom_site_occupancy
  _atom_site_fract_x
  _atom_site_fract_y
  _atom_site_fract_z
  _atom_site_thermal_displace_type
  _atom_site_B_iso_or_equiv
  _atom_site_type_symbol
  Ba1      1.0000 0.28005  0.09766  0.45165  Biso   1.000  Ba
  Ba2      1.0000 0.28653  0.67131  0.93876  Biso   1.000  Ba
  Ba3      1.0000 0.86874  0.81587  0.54531  Biso   1.000  Ba
  Ba4      1.0000 0.79815  0.25556  0.07792  Biso   1.000  Ba
  Mn1      1.0000 0.33661  0.49665  0.32488  Biso   1.000  Mn
  Mn2      1.0000 0.76283  0.43570  0.69363  Biso   1.000  Mn
  O1       1.0000 0.24006  0.56561  0.55188  Biso   1.000  O 
  O2       1.0000 0.01614  0.27196  0.71456  Biso   1.000  O 
  O3       1.0000 0.65329  0.37868  0.43980  Biso   1.000  O 
  O4       1.0000 0.51763  0.65044  0.25749  Biso   1.000  O 
  O5       1.0000 0.81395  0.75756  0.83580  Biso   1.000  O 
  O6       1.0000 0.08490  0.63668  0.24185  Biso   1.000  O 
  O7       1.0000 0.59712  0.29051  0.76719  Biso   1.000  O 
  O8       1.0000 0.24402  0.17579  0.15929  Biso   1.000  O 
