data_image0
_cell_length_a       5.48379
_cell_length_b       5.52106
_cell_length_c       7.79431
_cell_angle_alpha    90
_cell_angle_beta     90
_cell_angle_gamma    90

_symmetry_space_group_name_H-M    "P 1"
_symmetry_int_tables_number       1

loop_
  _symmetry_equiv_pos_as_xyz
  'x, y, z'

loop_
  _atom_site_label
  _atom_site_occupancy
  _atom_site_fract_x
  _atom_site_fract_y
  _atom_site_fract_z
  _atom_site_thermal_displace_type
  _atom_site_B_iso_or_equiv
  _atom_site_type_symbol
  Sr1      1.0000 0.48960  0.49857  0.75000  Biso   1.000  Sr
  Sr2      1.0000 0.98960  0.00143  0.75000  Biso   1.000  Sr
  Sr3      1.0000 0.01040  0.99857  0.25000  Biso   1.000  Sr
  Sr4      1.0000 0.51040  0.50143  0.25000  Biso   1.000  Sr
  Mn1      1.0000 0.50000  0.00000  0.00000  Biso   1.000  Mn
  Mn2      1.0000 0.00000  0.50000  0.50000  Biso   1.000  Mn
  Mn3      1.0000 0.00000  0.50000  0.00000  Biso   1.000  Mn
  Mn4      1.0000 0.50000  0.00000  0.50000  Biso   1.000  Mn
  O1       1.0000 0.73024  0.26959  0.52000  Biso   1.000  O 
  O2       1.0000 0.23024  0.23041  0.98000  Biso   1.000  O 
  O3       1.0000 0.76976  0.76959  0.48000  Biso   1.000  O 
  O4       1.0000 0.26976  0.73041  0.02000  Biso   1.000  O 
  O5       1.0000 0.26976  0.73041  0.48000  Biso   1.000  O 
  O6       1.0000 0.76976  0.76959  0.02000  Biso   1.000  O 
  O7       1.0000 0.23024  0.23041  0.52000  Biso   1.000  O 
  O8       1.0000 0.73024  0.26959  0.98000  Biso   1.000  O 
  O9       1.0000 0.50016  0.96069  0.75000  Biso   1.000  O 
  O10      1.0000 0.00016  0.53931  0.75000  Biso   1.000  O 
  O11      1.0000 0.99984  0.46069  0.25000  Biso   1.000  O 
  O12      1.0000 0.49984  0.03931  0.25000  Biso   1.000  O 
