data_image0
_cell_length_a       6.30706
_cell_length_b       6.07857
_cell_length_c       9.60825
_cell_angle_alpha    90
_cell_angle_beta     90
_cell_angle_gamma    90

_symmetry_space_group_name_H-M    "P 1"
_symmetry_int_tables_number       1

loop_
  _symmetry_equiv_pos_as_xyz
  'x, y, z'

loop_
  _atom_site_label
  _atom_site_occupancy
  _atom_site_fract_x
  _atom_site_fract_y
  _atom_site_fract_z
  _atom_site_thermal_displace_type
  _atom_site_B_iso_or_equiv
  _atom_site_type_symbol
  Ba1      1.0000 0.50000  0.00000  0.00000  Biso   1.000  Ba
  Ba2      1.0000 0.00000  0.50000  0.50000  Biso   1.000  Ba
  Ba3      1.0000 0.00000  0.50000  0.00000  Biso   1.000  Ba
  Ba4      1.0000 0.50000  0.00000  0.50000  Biso   1.000  Ba
  Mn1      1.0000 0.57288  0.53064  0.75000  Biso   1.000  Mn
  Mn2      1.0000 0.07288  0.96936  0.75000  Biso   1.000  Mn
  Mn3      1.0000 0.92712  0.03064  0.25000  Biso   1.000  Mn
  Mn4      1.0000 0.42712  0.46936  0.25000  Biso   1.000  Mn
  O1       1.0000 0.61950  0.38663  0.60105  Biso   1.000  O 
  O2       1.0000 0.11950  0.11337  0.89895  Biso   1.000  O 
  O3       1.0000 0.88050  0.88663  0.39895  Biso   1.000  O 
  O4       1.0000 0.38050  0.61337  0.10105  Biso   1.000  O 
  O5       1.0000 0.38050  0.61337  0.39895  Biso   1.000  O 
  O6       1.0000 0.88050  0.88663  0.10105  Biso   1.000  O 
  O7       1.0000 0.11950  0.11337  0.60105  Biso   1.000  O 
  O8       1.0000 0.61950  0.38663  0.89895  Biso   1.000  O 
  O9       1.0000 0.60593  0.81495  0.75000  Biso   1.000  O 
  O10      1.0000 0.10593  0.68505  0.75000  Biso   1.000  O 
  O11      1.0000 0.89407  0.31495  0.25000  Biso   1.000  O 
  O12      1.0000 0.39407  0.18505  0.25000  Biso   1.000  O 
