data_image0
_cell_length_a       6.36511
_cell_length_b       5.47684
_cell_length_c       9.43791
_cell_angle_alpha    90
_cell_angle_beta     90
_cell_angle_gamma    90

_symmetry_space_group_name_H-M    "P 1"
_symmetry_int_tables_number       1

loop_
  _symmetry_equiv_pos_as_xyz
  'x, y, z'

loop_
  _atom_site_label
  _atom_site_occupancy
  _atom_site_fract_x
  _atom_site_fract_y
  _atom_site_fract_z
  _atom_site_thermal_displace_type
  _atom_site_B_iso_or_equiv
  _atom_site_type_symbol
  Sr1      1.0000 0.50000  0.00000  0.00000  Biso   1.000  Sr
  Sr2      1.0000 0.00000  0.50000  0.50000  Biso   1.000  Sr
  Sr3      1.0000 0.00000  0.50000  0.00000  Biso   1.000  Sr
  Sr4      1.0000 0.50000  0.00000  0.50000  Biso   1.000  Sr
  Mn1      1.0000 0.61945  0.54316  0.75000  Biso   1.000  Mn
  Mn2      1.0000 0.11945  0.95684  0.75000  Biso   1.000  Mn
  Mn3      1.0000 0.88055  0.04316  0.25000  Biso   1.000  Mn
  Mn4      1.0000 0.38055  0.45684  0.25000  Biso   1.000  Mn
  O1       1.0000 0.65374  0.38348  0.59550  Biso   1.000  O 
  O2       1.0000 0.15374  0.11652  0.90449  Biso   1.000  O 
  O3       1.0000 0.84626  0.88348  0.40450  Biso   1.000  O 
  O4       1.0000 0.34626  0.61652  0.09551  Biso   1.000  O 
  O5       1.0000 0.34626  0.61652  0.40450  Biso   1.000  O 
  O6       1.0000 0.84626  0.88348  0.09551  Biso   1.000  O 
  O7       1.0000 0.15374  0.11652  0.59550  Biso   1.000  O 
  O8       1.0000 0.65374  0.38348  0.90449  Biso   1.000  O 
  O9       1.0000 0.44128  0.79459  0.75000  Biso   1.000  O 
  O10      1.0000 0.94128  0.70541  0.75000  Biso   1.000  O 
  O11      1.0000 0.05872  0.29459  0.25000  Biso   1.000  O 
  O12      1.0000 0.55872  0.20541  0.25000  Biso   1.000  O 
