data_image0
_cell_length_a       5.39539
_cell_length_b       5.34098
_cell_length_c       7.54538
_cell_angle_alpha    90
_cell_angle_beta     90
_cell_angle_gamma    90

_symmetry_space_group_name_H-M    "P 1"
_symmetry_int_tables_number       1

loop_
  _symmetry_equiv_pos_as_xyz
  'x, y, z'

loop_
  _atom_site_label
  _atom_site_occupancy
  _atom_site_fract_x
  _atom_site_fract_y
  _atom_site_fract_z
  _atom_site_thermal_displace_type
  _atom_site_B_iso_or_equiv
  _atom_site_type_symbol
  Ca1      1.0000 0.45617  0.49116  0.75000  Biso   1.000  Ca
  Ca2      1.0000 0.95617  0.00884  0.75000  Biso   1.000  Ca
  Ca3      1.0000 0.04383  0.99116  0.25000  Biso   1.000  Ca
  Ca4      1.0000 0.54383  0.50884  0.25000  Biso   1.000  Ca
  Mn1      1.0000 0.50000  0.00000  0.00000  Biso   1.000  Mn
  Mn2      1.0000 0.00000  0.50000  0.50000  Biso   1.000  Mn
  Mn3      1.0000 0.00000  0.50000  0.00000  Biso   1.000  Mn
  Mn4      1.0000 0.50000  0.00000  0.50000  Biso   1.000  Mn
  O1       1.0000 0.71014  0.29136  0.54200  Biso   1.000  O
  O2       1.0000 0.21014  0.20864  0.95800  Biso   1.000  O
  O3       1.0000 0.78986  0.79136  0.45800  Biso   1.000  O
  O4       1.0000 0.28986  0.70864  0.04200  Biso   1.000  O
  O5       1.0000 0.28986  0.70864  0.45800  Biso   1.000  O
  O6       1.0000 0.78986  0.79136  0.04200  Biso   1.000  O
  O7       1.0000 0.21014  0.20864  0.54200  Biso   1.000  O
  O8       1.0000 0.71014  0.29136  0.95800  Biso   1.000  O
  O9       1.0000 0.51909  0.91906  0.75000  Biso   1.000  O
  O10      1.0000 0.01909  0.58094  0.75000  Biso   1.000  O
  O11      1.0000 0.98091  0.41906  0.25000  Biso   1.000  O
  O12      1.0000 0.48091  0.08094  0.25000  Biso   1.000  O
