data_image0
_cell_length_a       5.69708
_cell_length_b       5.68979
_cell_length_c       8.09006
_cell_angle_alpha    90
_cell_angle_beta     90
_cell_angle_gamma    90

_symmetry_space_group_name_H-M    "P 1"
_symmetry_int_tables_number       1

loop_
  _symmetry_equiv_pos_as_xyz
  'x, y, z'

loop_
  _atom_site_label
  _atom_site_occupancy
  _atom_site_fract_x
  _atom_site_fract_y
  _atom_site_fract_z
  _atom_site_thermal_displace_type
  _atom_site_B_iso_or_equiv
  _atom_site_type_symbol
  Ba1      1.0000 0.49980  0.49986  0.75000  Biso   1.000  Ba
  Ba2      1.0000 0.99980  0.00014  0.75000  Biso   1.000  Ba
  Ba3      1.0000 0.00020  0.99986  0.25000  Biso   1.000  Ba
  Ba4      1.0000 0.50020  0.50014  0.25000  Biso   1.000  Ba
  Mn1      1.0000 0.50000  0.00000  0.00000  Biso   1.000  Mn
  Mn2      1.0000 0.00000  0.50000  0.50000  Biso   1.000  Mn
  Mn3      1.0000 0.00000  0.50000  0.00000  Biso   1.000  Mn
  Mn4      1.0000 0.50000  0.00000  0.50000  Biso   1.000  Mn
  O1       1.0000 0.74942  0.25033  0.50011  Biso   1.000  O 
  O2       1.0000 0.24942  0.24967  0.99989  Biso   1.000  O 
  O3       1.0000 0.75058  0.75033  0.49989  Biso   1.000  O 
  O4       1.0000 0.25058  0.74967  0.00011  Biso   1.000  O 
  O5       1.0000 0.25058  0.74967  0.49989  Biso   1.000  O 
  O6       1.0000 0.75058  0.75033  0.00011  Biso   1.000  O 
  O7       1.0000 0.24942  0.24967  0.50011  Biso   1.000  O 
  O8       1.0000 0.74942  0.25033  0.99989  Biso   1.000  O 
  O9       1.0000 0.49890  0.99994  0.75000  Biso   1.000  O 
  O10      1.0000 0.99890  0.50006  0.75000  Biso   1.000  O 
  O11      1.0000 0.00110  0.49994  0.25000  Biso   1.000  O 
  O12      1.0000 0.50110  0.00006  0.25000  Biso   1.000  O 
